sistemas/ieee68.pwf
TITU
**** New-England / New-York Test System ****
DCTE
(Mn) ( Val) (Mn) ( Val) (Mn) ( Val) (Mn) ( Val) (Mn) ( Val) (Mn) ( Val)
BASE   100. DASE   100. TEPA  .1E-9 EXST  .4E-9 TETP     5. TBPA  .1E-5
TLPP     1. TEPR  .1E-9 QLST  .4E-9 TLPR   .001 TLPQ     2. TSBZ    .01
TSBA     5. ASTP    .05 VSTP     5. TLVC  .1E-5 TLTC    .01 TSFR  .1E-7
ZMAX   500. TLPV     .5 VDVM   200. VDVN    10. TUDC   .001 TADC    .01
PGER    30. TPST  .2E-9 VFLD    70. ZMIN   .001 HIST    470 LFIT     10
ACIT     90 LFCV      1 DCIT     10 VSIT     10 LPIT     50 LFLP     10
PDIT     10 LCRT     24 LPRT     60 CSTP     5. ASDC     1.
ICIT    900 DMAX   9999 FDIV    1.5 ICMN  .0001 VART     5. TSTP     32
ICMV    .01 APAS   99.5 CPAR    90. VAVT     2. VAVF     5. VMVF    15.
VPVT     2. VPVF     5. VPMF    10. VSVF    20. VINF     1. VSUP     1.
(FULL     0  
(SIGK   1E6  SIGV  1E-4  SIGQ  1E-4  CTOL  1E-4
99999
DBAR
(   0    |    1    |    2    |    3    |    4    |    5    |    6    |    7    |                                                     
(2345678901234567890123456789012345678901234567890123456789012345678901234567890
(Num)OETGb(   nome   )Gl( V)( A)( Pg)( Qg)( Qn)( Qm)(Bc  )( Pl)( Ql)( Sh)Are(Vf)M(1)(2)(3)(4)(5)(6)(7)(8)(9)(10
  01   1  Barra01       1045  0. 250.   0.-999.9999.         0.   0.       2                                   
  02   1  Barra02       0980  0. 545.   0.-999.9999.         0.   0.       2                                   
  03   1  Barra03       0983  0. 650.   0.-999.9999.         0.   0.       2                                   
  04   1  Barra04       0997  0. 632.   0.-999.9999.         0.   0.       2                                   
  05   1  Barra05       1011  0. 505.   0.-999.9999.         0.   0.       2                                   
  06   1  Barra06       1050  0. 700.   0.-999.9999.         0.   0.       2                                   
  07   1  Barra07       1063  0. 560.   0.-999.9999.         0.   0.       2                                   
  08   1  Barra08       1030  0. 540.   0.-999.9999.         0.   0.       2                                   
  09   1  Barra09       1025  0. 800.   0.-999.9999.         0.   0.       2                                   
  10   1  Barra10       1010  0. 500.   0.-999.9999.         0.   0.       1                                   
  11   1  Barra11       1000  0.1000.   0.-999.9999.         0.   0.       1                                   
  12   1  Barra12       1015  0.1350.   0.-999.9999.         0.   0.       1                                   
  13   1  Barra13       1011  0.3591.   0.-999.9999.         0.   0.       1                                   
  14   1  Barra14       1000  0.1785.   0.-999.9999.         0.   0.       3                                   
  15   1  Barra15       1000  0.1000.   0.-999.9999.         0.   0.       4                                   
  16   2  Barra16       1000  0.4000.   0.-999.9999.         0.   0.       5                                   
  17   0  Barra17       1000  0.   0.   0.                6000. 300.       1                                   
  18   0  Barra18       1000  0.   0.   0.                2470. 123.       5                                   
  19   0  Barra19       1000  0.   0.   0.                   0.   0.       2                                   
  20   0  Barra20       1000  0.   0.   0.                 680. 103.       2                                   
  21   0  Barra21       1000  0.   0.   0.                 274. 115.       2                                   
  22   0  Barra22       1000  0.   0.   0.                   0.   0.       2                                   
  23   0  Barra23       1000  0.   0.   0.                 248.  85.       2                                   
  24   0  Barra24       1000  0.   0.   0.                 309. -92.       2                                   
  25   0  Barra25       1000  0.   0.   0.                 224.  47.       2                                   
  26   0  Barra26       1000  0.   0.   0.                 139.  17.       2                                   
  27   0  Barra27       1000  0.   0.   0.                 281.  76.       2                                   
  28   0  Barra28       1000  0.   0.   0.                 206.  28.       2                                   
  29   0  Barra29       1000  0.   0.   0.                 284.  27.       2                                   
  30   0  Barra30       1000  0.   0.   0.                   0.   0.       1                                   
  31   0  Barra31       1000  0.   0.   0.                   0.   0.       1                                   
  32   0  Barra32       1000  0.   0.   0.                   0.   0.       1                                   
  33   0  Barra33       1000  0.   0.   0.                 112.   0.       1                                   
  34   0  Barra34       1000  0.   0.   0.                   0.   0.       1                                   
  35   0  Barra35       1000  0.   0.   0.                   0.   0.       1                                   
  36   0  Barra36       1000  0.   0.   0.                 102.-19.5       1                                   
  37   0  Barra37       1000  0.   0.   0.                   0.   0.       2                                   
  38   0  Barra38       1000  0.   0.   0.                   0.   0.       1                                   
  39   0  Barra39       1000  0.   0.   0.                 267. 12.6       1                                   
  40   0  Barra40       1000  0.   0.   0.                65.6323.53       1                                   
  41   0  Barra41       1000  0.   0.   0.                1000. 250.       3                                   
  42   0  Barra42       1000  0.   0.   0.                1150. 250.       4                                   
  43   0  Barra43       1000  0.   0.   0.                   0.   0.       1                                   
  44   0  Barra44       1000  0.   0.   0.                267.6 4.84       1                                   
  45   0  Barra45       1000  0.   0.   0.                 208.  21.       1                                   
  46   0  Barra46       1000  0.   0.   0.                150.7 28.5       1                                   
  47   0  Barra47       1000  0.   0.   0.                203.132.59       1                                   
  48   0  Barra48       1000  0.   0.   0.                241.2  2.2       1                                   
  49   0  Barra49       1000  0.   0.   0.                 164.  29.       1                                   
  50   0  Barra50       1000  0.   0.   0.                 100.-147.       1                                   
  51   0  Barra51       1000  0.   0.   0.                 337.-122.       1                                   
  52   0  Barra52       1000  0.   0.   0.                 158.  30.       2                                   
  53   0  Barra53       1000  0.   0.   0.                252.7118.6       1                                   
  54   0  Barra54       1000  0.   0.   0.                   0.   0.       2                                   
  55   0  Barra55       1000  0.   0.   0.                 322.   2.       2                                   
  56   0  Barra56       1000  0.   0.   0.                 200. 73.6       2                                   
  57   0  Barra57       1000  0.   0.   0.                   0.   0.       2                                   
  58   0  Barra58       1000  0.   0.   0.                   0.   0.       2                                   
  59   0  Barra59       1000  0.   0.   0.                 234.  84.       2                                   
  60   0  Barra60       1000  0.   0.   0.                208.8 70.8       2                                   
  61   0  Barra61       1000  0.   0.   0.                 104. 125.       1                                   
  62   0  Barra62       1000  0.   0.   0.                   0.   0.       2                                   
  63   0  Barra63       1000  0.   0.   0.                   0.   0.       2                                   
  64   0  Barra64       1000  0.   0.   0.                   9.  88.       2                                   
  65   0  Barra17       1000  0.   0.   0.                   0.   0.       2                                   
  66   0  Barra19       1000  0.   0.   0.                   0.   0.       2                                   
  67   0  Barra67       1000  0.   0.   0.                 320. 153.       2                                   
  68   0  Barra68       1000  0.   0.   0.                 329.  32.       2                                   
99999 
DLIN
(   0    |    1    |    2    |    3    |    4    |    5    |    6    |    7    |                                                       
(2345678901234567890123456789012345678901234567890123456789012345678901234567890
(De )d O d(Pa )NcEP ( R% )( X% )(Mvar)(Tap)(Tmn)(Tmx)(Phs)(Bc  )(Cn)(Ce)Ns
   01        54      00.00  1.81      1.025    
   02        58      00.00  2.50      1.070  
   03        62      00.00  2.00      1.070   
   04        19      00.07  1.42      1.070  
   05        20      00.09  1.80      1.009  
   06        22      00.00  1.43      1.025 
   07        23      00.05  2.72       
   08        25      00.06  2.32      1.025  
   09        29      00.08  1.56      1.025  
   10        31      00.00  2.60      1.040   
   11        32      00.00  1.30      1.040 
   12        36      00.00  0.75      1.040   
   13        17      00.00  0.33      1.040 
   14        41      00.00  0.15      1.000     
   15        42      00.00  0.15      1.000     
   16        18      00.00  0.30      1.000  
   17        36      00.05  0.45 32.00   
   18        49      00.76 11.41 116.0  
   18        50      00.12  2.88 206.0
   19        68      00.16  1.95 30.40  
   20        19      00.07  1.38      1.060   
   21        68      00.08  1.35 25.48  
   22        21      00.08  1.40 25.65  
   23        22      00.06  0.96 18.46  
   24        23      00.22  3.50 36.10  
   24        68      00.03  0.59 06.80 
   25        54      00.70  0.86 14.60  
   26        25      00.32  3.23 53.10  
   27        37      00.13  1.73 32.16  
   27        26      00.14  1.47 23.96
   28        26      00.43  4.74 78.02  
   29        26      00.57  6.25 102.9  
   29        28      00.14  1.51 24.90  
   30        53      00.08  0.74 48.00 
   30        61      0.095  0.91 58.00   
   31        30      00.13  1.87 33.30  
   31        53      00.16  1.63 25.00  
   32        30      00.24  2.88 48.80 
   33        32      00.08  0.99 16.80  
   34        33      00.11  1.57 20.20   
   34        35      00.01  0.74      0.946  
   36        34      00.33  1.11 145.0   
   36        61      00.11  0.98 68.00        
   37        68      00.07  0.89 13.42 
   38        31      00.11  1.47 24.70   
   38        33      00.36  4.44 69.30   
   40        41      00.60  8.40 315.0  
   40        48      00.20  2.20 128.0  
   41        42      00.40  6.00 225.0    
   42        18      00.40  6.00 225.0    
   43        17      00.05  2.76    
   44        39      00.00  4.11    
   44        43      00.01  0.11    
   45        35      00.07  1.75 139.0 
   45        39      00.00  8.39   
   45        44      00.25  7.30    
   46        38      00.22  2.84 43.00   
   47        53      00.13  1.88 131.0 
   48        47      0.125  1.34 80.00        
   49        46      00.18  2.74 27.00 
   51        45      00.04  1.05 72.00  
   51        50      00.09  2.21 162.0 
   52        37      00.07  0.82 13.19  
   52        55      00.11  1.33 21.38  
   54        53      00.35  4.11 69.87 
   55        54      00.13  1.51 25.72    
   56        55      00.13  2.13 22.14  
   57        56      00.08  1.28 13.42  
   58        57      00.02  0.26  4.34  
   59        58      00.06  0.92 11.30  
   60        57      00.08  1.12 14.76
   60        59      00.04  0.46  7.80  
   61        60      00.23  3.63 38.04
   63        58      00.07  0.82 13.89  
   63        62      00.04  0.43  7.29  
   63        64      00.16  4.35      1.060   
   65        62      00.04  0.43  7.29 
   65        64      00.16  4.35      1.060   
   66        56      00.08  1.29 13.82  
   66        65      00.09  1.01 17.23  
   67        66      00.18  2.17 36.60   
   68        67      00.09  0.94 17.10   
   27        53      03.20 32.00 41.00  
99999
exlf newt
(ULOG
(2
(NETS_NYPS_vb.his
(ARQV INIC IMPR
(SIM
(ARQV GRAV IMPR SUBS
(01
(ULOG
(4
(NETS_NYPS_vb.rel
(RELA FILE 80CO RBAR RLIN
FIM



     